<?xml version="1.0" encoding="UTF-8"?>

<!-- generated on 2025-10-22 05:46:17 by Eclipse SUMO netedit Version 1.23.1
-->

<routes xmlns:xsi="http://www.w3.org/2001/XMLSchema-instance" xsi:noNamespaceSchemaLocation="http://sumo.dlr.de/xsd/routes_file.xsd">
    <!-- Vehicles, persons and containers (sorted by depart) -->
    <flow id="f_0" begin="0.00" from="-E1" to="E2" end="3600.00" number="10000"/>
    <flow id="f_1" begin="0.00" from="-E0" to="E2" end="3600.00" number="10000"/>
</routes>
